Distrib/IEEETestCases/ShortCircuitCases/123Bus/ieee123_Power_seq_kVA.txt

SYMMETRICAL COMPONENT POWERS BY CIRCUIT ELEMENT (first 3 phases)                                     Excess Power

Element             Term    P1(kW)   Q1(kvar)       P2         Q2      P0      Q0       P_Norm      Q_Norm     P_Emerg    Q_Emerg

"Vsource.source"     1    -3621.3    -1324.9        0.0        0.0    -0.0     0.0
"Vsource.source"     2        0.0        0.0        0.0        0.0     0.0     0.0
"Transformer.reg1a"  1     3621.3     1324.9       -0.0       -0.0     0.0    -0.0        0.0        0.0        0.0        0.0
"Transformer.reg1a"  2    -3621.3    -1324.9        0.0        0.0     0.0     0.0
"Line.l115"          1     3621.3     1324.9       -0.0       -0.0    -0.0    -0.0     1316.4      481.6      163.9       60.0
"Line.l115"          2    -3603.6    -1286.9        0.7        1.1     0.7     1.5
"Line.l1"            1        0.0        0.0        0.0        0.0     0.0     0.0        0.0        0.0        0.0        0.0
"Line.l1"            2        0.0        0.0        0.0        0.0     0.0     0.0
"Line.l2"            1        0.0        0.0        0.0        0.0     0.0     0.0        0.0        0.0        0.0        0.0
"Line.l2"            2        0.0        0.0        0.0        0.0     0.0     0.0
"Line.l3"            1     3439.9     1205.0       -0.9       -0.9    -0.4    -1.6     1185.6      414.6       59.0       20.6
"Line.l3"            2    -3427.9    -1179.2        1.5        1.6     0.9     2.7
"Line.l4"            1        0.0        0.0        0.0        0.0     0.0     0.0        0.0        0.0        0.0        0.0
"Line.l4"            2        0.0        0.0        0.0        0.0     0.0     0.0
"Line.l5"            1        0.0        0.0        0.0        0.0     0.0     0.0        0.0        0.0        0.0        0.0
"Line.l5"            2        0.0        0.0        0.0        0.0     0.0     0.0
"Line.l6"            1        0.0        0.0        0.0        0.0     0.0     0.0        0.0        0.0        0.0        0.0
"Line.l6"            2        0.0        0.0        0.0        0.0     0.0     0.0
"Line.l7"            1     3407.8     1169.0       -1.4       -1.6    -0.9    -2.5     1140.6      390.1        8.1        2.8
"Line.l7"            2    -3399.8    -1152.0        1.7        2.0     1.2     3.2
"Line.l8"            1        0.0        0.0        0.0        0.0     0.0     0.0        0.0        0.0        0.0        0.0
"Line.l8"            2        0.0        0.0        0.0        0.0     0.0     0.0
"Line.l9"            1        0.0        0.0        0.0        0.0     0.0     0.0        0.0        0.0        0.0        0.0
"Line.l9"            2        0.0        0.0        0.0        0.0     0.0     0.0
"Line.l10"           1     3278.5     1090.2       -1.2       -1.8    -1.3    -2.3      917.1      304.1        0.0        0.0
"Line.l10"           2    -3267.4    -1066.6        1.6        2.3     1.6     2.9
"Line.l11"           1        0.0        0.0        0.0        0.0     0.0     0.0        0.0        0.0        0.0        0.0
"Line.l11"           2        0.0        0.0        0.0        0.0     0.0     0.0
"Line.l12"           1        0.0        0.0        0.0        0.0     0.0     0.0        0.0        0.0        0.0        0.0
"Line.l12"           2        0.0        0.0        0.0        0.0     0.0     0.0
"Line.l13"           1     1132.9      674.1       -1.2       -0.7    -0.2    -1.7        0.0        0.0        0.0        0.0
"Line.l13"           2    -1128.2     -664.7        1.3        0.9     0.4     2.2
"Line.l14"           1        0.0        0.0        0.0        0.0     0.0     0.0        0.0        0.0        0.0        0.0
"Line.l14"           2        0.0        0.0        0.0        0.0     0.0     0.0
"Line.l15"           1        0.0        0.0        0.0        0.0     0.0     0.0        0.0        0.0        0.0        0.0
"Line.l15"           2        0.0        0.0        0.0        0.0     0.0     0.0
"Line.l16"           1        0.0        0.0        0.0        0.0     0.0     0.0        0.0        0.0        0.0        0.0
"Line.l16"           2        0.0        0.0        0.0        0.0     0.0     0.0
"Line.l17"           1        0.0        0.0        0.0        0.0     0.0     0.0        0.0        0.0        0.0        0.0
"Line.l17"           2        0.0        0.0        0.0        0.0     0.0     0.0
"Line.l18"           1        0.0        0.0        0.0        0.0     0.0     0.0        0.0        0.0        0.0        0.0
"Line.l18"           2        0.0        0.0        0.0        0.0     0.0     0.0
"Line.l19"           1      283.6      143.2        0.1       -0.7    -1.1    -0.5        0.0        0.0        0.0        0.0
"Line.l19"           2     -283.5     -143.0       -0.1        0.7     1.1     0.5
"Line.l20"           1        0.0        0.0        0.0        0.0     0.0     0.0        0.0        0.0        0.0        0.0
"Line.l20"           2        0.0        0.0        0.0        0.0     0.0     0.0
"Line.l21"           1        0.0        0.0        0.0        0.0     0.0     0.0        0.0        0.0        0.0        0.0
"Line.l21"           2        0.0        0.0        0.0        0.0     0.0     0.0
"Line.l22"           1      241.6      122.3        0.1       -1.0    -1.7    -0.8        0.0        0.0        0.0        0.0
"Line.l22"           2     -241.5     -122.2       -0.1        1.1     1.8     0.9
"Line.l23"           1        0.0        0.0        0.0        0.0     0.0     0.0        0.0        0.0        0.0        0.0
"Line.l23"           2        0.0        0.0        0.0        0.0     0.0     0.0
"Line.l24"           1      201.2      102.4       -0.2       -0.9    -1.2    -1.3        0.0        0.0        0.0        0.0
"Line.l24"           2     -201.2     -102.3        0.2        0.9     1.2     1.4
"Line.l25"           1        0.0        0.0        0.0        0.0     0.0     0.0        0.0        0.0        0.0        0.0
"Line.l25"           2        0.0        0.0        0.0        0.0     0.0     0.0
"Line.l26"           1      120.7       61.6       -0.3       -0.6    -0.6    -1.0        0.0        0.0        0.0        0.0
"Line.l26"           2     -120.6      -61.5        0.3        0.6     0.6     1.1
"Line.l27"           1        0.0        0.0        0.0        0.0     0.0     0.0        0.0        0.0        0.0        0.0
"Line.l27"           2        0.0        0.0        0.0        0.0     0.0     0.0
"Line.l28"           1        0.0        0.0        0.0        0.0     0.0     0.0        0.0        0.0        0.0        0.0
"Line.l28"           2        0.0        0.0        0.0        0.0     0.0     0.0
"Line.l29"           1        0.0        0.0        0.0        0.0     0.0     0.0        0.0        0.0        0.0        0.0
"Line.l29"           2        0.0        0.0        0.0        0.0     0.0     0.0
"Line.l30"           1       80.4       40.6        0.0       -0.4    -0.6    -0.3        0.0        0.0        0.0        0.0
"Line.l30"           2      -80.4      -40.6       -0.0        0.4     0.6     0.4
"Line.l31"           1       40.3       19.8        0.3       -0.2    -0.6     0.4        0.0        0.0        0.0        0.0
"Line.l31"           2      -40.3      -19.8       -0.3        0.2     0.6    -0.4
"Line.l32"           1        0.0       -0.0       -0.0        0.0     0.0    -0.0        0.0        0.0        0.0        0.0
"Line.l32"           2        0.0       -0.0       -0.0        0.0    -0.0     0.0
"Line.l33"           1        0.0        0.0        0.0        0.0     0.0     0.0        0.0        0.0        0.0        0.0
"Line.l33"           2        0.0        0.0        0.0        0.0     0.0     0.0
"Line.l34"           1        0.0        0.0        0.0        0.0     0.0     0.0        0.0        0.0        0.0        0.0
"Line.l34"           2        0.0        0.0        0.0        0.0     0.0     0.0
"Line.l35"           1        0.0        0.0        0.0        0.0     0.0     0.0        0.0        0.0        0.0        0.0
"Line.l35"           2        0.0        0.0        0.0        0.0     0.0     0.0
"Line.l36"           1      642.5      417.4       -0.2       -0.0     0.3    -0.1        0.0        0.0        0.0        0.0
"Line.l36"           2     -642.1     -416.4        0.2        0.0    -0.3     0.1
"Line.l37"           1        0.0        0.0        0.0        0.0     0.0     0.0        0.0        0.0        0.0        0.0
"Line.l37"           2        0.0        0.0        0.0        0.0     0.0     0.0
"Line.l38"           1        0.0        0.0        0.0        0.0     0.0     0.0        0.0        0.0        0.0        0.0
"Line.l38"           2        0.0        0.0        0.0        0.0     0.0     0.0
"Line.l39"           1        0.0        0.0        0.0        0.0     0.0     0.0        0.0        0.0        0.0        0.0
"Line.l39"           2        0.0        0.0        0.0        0.0     0.0     0.0
"Line.l40"           1        0.0        0.0        0.0        0.0     0.0     0.0        0.0        0.0        0.0        0.0
"Line.l40"           2        0.0        0.0        0.0        0.0     0.0     0.0
"Line.l41"           1      622.0      406.5       -0.4        0.0     0.6    -0.3        0.0        0.0        0.0        0.0
"Line.l41"           2     -621.5     -405.6        0.4       -0.0    -0.6     0.3
"Line.l42"           1        0.0        0.0        0.0        0.0     0.0     0.0        0.0        0.0        0.0        0.0
"Line.l42"           2        0.0        0.0        0.0        0.0     0.0     0.0
"Line.l43"           1      559.8      374.7       -0.2       -0.2     0.0    -0.2        0.0        0.0        0.0        0.0
"Line.l43"           2     -559.5     -374.0        0.2        0.2    -0.0     0.2
"Line.l44"           1        0.0        0.0        0.0        0.0     0.0     0.0        0.0        0.0        0.0        0.0
"Line.l44"           2        0.0        0.0        0.0        0.0     0.0     0.0
"Line.l45"           1      519.2      353.2        0.1        0.0     0.1     0.4        0.0        0.0        0.0        0.0
"Line.l45"           2     -518.9     -352.6       -0.1       -0.0    -0.1    -0.4
"Line.l46"           1        0.0        0.0        0.0        0.0     0.0     0.0        0.0        0.0        0.0        0.0
"Line.l46"           2        0.0        0.0        0.0        0.0     0.0     0.0
"Line.l47"           1      213.2      152.3        0.0        0.0     0.0     0.0        0.0        0.0        0.0        0.0
"Line.l47"           2     -213.1     -152.2       -0.0       -0.0    -0.0    -0.0
"Line.l48"           1      199.9      124.7        0.1        0.0     0.1     0.4        0.0        0.0        0.0        0.0
"Line.l48"           2     -199.9     -124.6       -0.1       -0.0    -0.1    -0.4
"Line.l49"           1       60.3       30.1        0.2       -0.3    -0.5     0.1        0.0        0.0        0.0        0.0
"Line.l49"           2      -60.3      -30.1       -0.2        0.3     0.5    -0.1
"Line.l50"           1       20.2       10.4       -0.1       -0.1    -0.1    -0.3        0.0        0.0        0.0        0.0
"Line.l50"           2      -20.2      -10.4        0.1        0.1     0.1     0.3
"Line.l51"           1       -0.0       -0.0        0.0       -0.0    -0.0     0.0        0.0        0.0        0.0        0.0
"Line.l51"           2       -0.0        0.0       -0.0        0.0     0.0    -0.0
"Line.l52"           1     1986.8      309.9       -1.0       -1.2    -0.4    -1.6        0.0        0.0        0.0        0.0
"Line.l52"           2    -1984.2     -304.4        1.0        1.3     0.5     1.6
"Line.l53"           1     1943.8      283.6       -0.7       -1.1    -0.4    -1.0        0.0        0.0        0.0        0.0
"Line.l53"           2    -1942.3     -280.4        0.7        1.1     0.4     1.1
"Line.l54"           1       39.9       20.1       -0.2        0.1     0.2    -0.2        0.0        0.0        0.0        0.0
"Line.l54"           2      -39.9      -20.1        0.2       -0.1    -0.2     0.2
"Line.l55"           1     1902.4      260.3       -0.5       -1.2    -0.7    -0.9        0.0        0.0        0.0        0.0
"Line.l55"           2    -1898.1     -251.7        0.5        1.2     0.7     0.9
"Line.l56"           1       19.8        9.7       -0.0        0.2     0.3     0.1        0.0        0.0        0.0        0.0
"Line.l56"           2      -19.8       -9.7        0.0       -0.2    -0.3    -0.1
"Line.l57"           1        0.0        0.0        0.0        0.0     0.0     0.0        0.0        0.0        0.0        0.0
"Line.l57"           2        0.0        0.0        0.0        0.0     0.0     0.0
"Line.l58"           1     1858.0      232.0       -0.4       -1.6    -1.3    -1.2        0.0        0.0        0.0        0.0
"Line.l58"           2    -1849.2     -214.4        0.4        1.8     1.3     1.4
"Line.l59"           1        0.0        0.0        0.0        0.0     0.0     0.0        0.0        0.0        0.0        0.0
"Line.l59"           2        0.0        0.0        0.0        0.0     0.0     0.0
"Line.l60"           1        0.0       -0.0        0.0        0.0     0.0     0.0        0.0        0.0        0.0        0.0
"Line.l60"           2       -0.0       -0.0       -0.0       -0.0    -0.0    -0.0
"Line.l61"           1      373.6      210.7        0.9       -0.3    -0.5     1.0        0.0        0.0        0.0        0.0
"Line.l61"           2     -373.1     -210.6       -0.9        0.3     0.6    -0.9
"Line.l62"           1      332.6      190.6        0.5       -0.2     0.1     0.6        0.0        0.0        0.0        0.0
"Line.l62"           2     -332.3     -190.6       -0.5        0.2    -0.0    -0.6
"Line.l63"           1      292.0      169.5        0.8        0.1     0.0     1.3        0.0        0.0        0.0        0.0
"Line.l63"           2     -291.5     -169.5       -0.8       -0.1     0.0    -1.3
"Line.l64"           1      215.9      135.2        0.9       -0.7    -1.1     0.6        0.0        0.0        0.0        0.0
"Line.l64"           2     -215.6     -135.2       -0.8        0.7     1.2    -0.6
"Line.l65"           1       75.6       34.7        0.7       -0.3    -1.2     0.6        0.0        0.0        0.0        0.0
"Line.l65"           2      -75.6      -34.8       -0.7        0.3     1.3    -0.5
"Line.l66"           1        0.0        0.0        0.0        0.0     0.0     0.0        0.0        0.0        0.0        0.0
"Line.l66"           2        0.0        0.0        0.0        0.0     0.0     0.0
"Line.l67"           1      884.6     -301.1       -0.3        0.3    -0.5     0.3        0.0        0.0        0.0        0.0
"Line.l67"           2     -883.9      302.6        0.3       -0.3     0.5    -0.3
"Line.l68"           1      446.3      225.8        0.5       -0.4     0.2    -0.4        0.0        0.0        0.0        0.0
"Line.l68"           2     -446.0     -225.4       -0.5        0.4    -0.2     0.4
"Line.l69"           1        0.0        0.0        0.0        0.0     0.0     0.0        0.0        0.0        0.0        0.0
"Line.l69"           2        0.0        0.0        0.0        0.0     0.0     0.0
"Line.l70"           1        0.0        0.0        0.0        0.0     0.0     0.0        0.0        0.0        0.0        0.0
"Line.l70"           2        0.0        0.0        0.0        0.0     0.0     0.0
"Line.l71"           1        0.0        0.0        0.0        0.0     0.0     0.0        0.0        0.0        0.0        0.0
"Line.l71"           2        0.0        0.0        0.0        0.0     0.0     0.0
"Line.l72"           1        0.0        0.0        0.0        0.0     0.0     0.0        0.0        0.0        0.0        0.0
"Line.l72"           2        0.0        0.0        0.0        0.0     0.0     0.0
"Line.l73"           1      760.6     -363.3       -1.0       -1.0     0.5     0.6        0.0        0.0        0.0        0.0
"Line.l73"           2     -760.2      364.2        1.0        1.0    -0.5    -0.5
"Line.l74"           1        0.0        0.0        0.0        0.0     0.0     0.0        0.0        0.0        0.0        0.0
"Line.l74"           2        0.0        0.0        0.0        0.0     0.0     0.0
"Line.l75"           1        0.0        0.0        0.0        0.0     0.0     0.0        0.0        0.0        0.0        0.0
"Line.l75"           2        0.0        0.0        0.0        0.0     0.0     0.0
"Line.l76"           1      245.2     -521.9        0.0       -0.1     0.0    -0.0        0.0        0.0        0.0        0.0
"Line.l76"           2     -244.7      522.7       -0.0        0.1    -0.0     0.0
"Line.l77"           1      262.1      -28.6       -1.0       -0.5     0.5     0.6        0.0        0.0        0.0        0.0
"Line.l77"           2     -261.9       28.9        1.0        0.5    -0.4    -0.4
"Line.l78"           1      204.4     -542.4        0.5       -0.1    -0.1    -0.4        0.0        0.0        0.0        0.0
"Line.l78"           2     -204.2      542.7       -0.5        0.1     0.1     0.4
"Line.l79"           1       42.6       22.3        0.3       -0.4     0.3    -0.2        0.0        0.0        0.0        0.0
"Line.l79"           2      -42.6      -22.3       -0.3        0.4    -0.3     0.3
"Line.l80"           1      161.6     -564.9        0.2        0.4    -0.3    -0.1        0.0        0.0        0.0        0.0
"Line.l80"           2     -161.1      566.0       -0.2       -0.4     0.3     0.1
"Line.l81"           1      120.7     -585.7        0.7        0.4    -0.4    -0.5        0.0        0.0        0.0        0.0
"Line.l81"           2     -120.5      586.1       -0.7       -0.4     0.4     0.5
"Line.l82"           1       60.2     -615.8        0.4       -0.2     0.1    -0.3        0.0        0.0        0.0        0.0
"Line.l82"           2      -59.9      616.4       -0.4        0.2    -0.1     0.3
"Line.l83"           1        0.0        0.0        0.0        0.0     0.0     0.0        0.0        0.0        0.0        0.0
"Line.l83"           2        0.0        0.0        0.0        0.0     0.0     0.0
"Line.l84"           1       20.4     -637.0        0.1        0.1    -0.2    -0.1        0.0        0.0        0.0        0.0
"Line.l84"           2      -20.1      637.6       -0.1       -0.1     0.2     0.1
"Line.l85"           1        0.0        0.0        0.0        0.0     0.0     0.0        0.0        0.0        0.0        0.0
"Line.l85"           2        0.0        0.0        0.0        0.0     0.0     0.0
"Line.l86"           1      241.7      -38.8       -0.7       -0.5     0.4     0.3        0.0        0.0        0.0        0.0
"Line.l86"           2     -241.6       38.9        0.7        0.5    -0.3    -0.3
"Line.l87"           1        0.0        0.0        0.0        0.0     0.0     0.0        0.0        0.0        0.0        0.0
"Line.l87"           2        0.0        0.0        0.0        0.0     0.0     0.0
"Line.l88"           1      160.8      -25.9        0.1        0.0     0.4     0.3        0.0        0.0        0.0        0.0
"Line.l88"           2     -160.7       26.0       -0.1       -0.0    -0.4    -0.2
"Line.l89"           1        0.0        0.0        0.0        0.0     0.0     0.0        0.0        0.0        0.0        0.0
"Line.l89"           2        0.0        0.0        0.0        0.0     0.0     0.0
"Line.l90"           1      119.6        6.6        0.4       -0.5     0.1     0.2        0.0        0.0        0.0        0.0
"Line.l90"           2     -119.6       -6.5       -0.4        0.5    -0.1    -0.2
"Line.l91"           1        0.0        0.0        0.0        0.0     0.0     0.0        0.0        0.0        0.0        0.0
"Line.l91"           2        0.0        0.0        0.0        0.0     0.0     0.0
"Line.l92"           1       80.1       40.5       -0.2       -0.5     0.2     0.0        0.0        0.0        0.0        0.0
"Line.l92"           2      -80.1      -40.5        0.2        0.5    -0.2    -0.0
"Line.l93"           1        0.0        0.0        0.0        0.0     0.0     0.0        0.0        0.0        0.0        0.0
"Line.l93"           2        0.0        0.0        0.0        0.0     0.0     0.0
"Line.l94"           1       40.4       19.9       -0.5       -0.0     0.1     0.2        0.0        0.0        0.0        0.0
"Line.l94"           2      -40.4      -19.9        0.5        0.0    -0.1    -0.2
"Line.l95"           1        0.0        0.0        0.0        0.0     0.0     0.0        0.0        0.0        0.0        0.0
"Line.l95"           2        0.0        0.0        0.0        0.0     0.0     0.0
"Line.l96"           1      122.8       61.4        0.0        0.0    -0.0     0.0        0.0        0.0        0.0        0.0
"Line.l96"           2     -122.8      -61.4       -0.0       -0.0     0.0    -0.0
"Line.l97"           1       83.2       40.7       -0.2        0.4    -0.3     0.3        0.0        0.0        0.0        0.0
"Line.l97"           2      -83.2      -40.7        0.2       -0.4     0.3    -0.2
"Line.l98"           1       42.9       21.0        0.3        0.4    -0.4    -0.1        0.0        0.0        0.0        0.0
"Line.l98"           2      -42.9      -21.0       -0.2       -0.4     0.4     0.1
"Line.l99"           1       -0.0       -0.0        0.0       -0.0    -0.0    -0.0        0.0        0.0        0.0        0.0
"Line.l99"           2        0.0        0.0        0.0       -0.0     0.0     0.0
"Line.l100"          1        0.0        0.0        0.0        0.0     0.0     0.0        0.0        0.0        0.0        0.0
"Line.l100"          2        0.0        0.0        0.0        0.0     0.0     0.0
"Line.l101"          1      222.6      114.4       -0.1       -1.4     1.1    -0.3        0.0        0.0        0.0        0.0
"Line.l101"          2     -222.5     -114.3        0.1        1.5    -1.1     0.4
"Line.l102"          1        0.0        0.0        0.0        0.0     0.0     0.0        0.0        0.0        0.0        0.0
"Line.l102"          2        0.0        0.0        0.0        0.0     0.0     0.0
"Line.l103"          1        0.0        0.0        0.0        0.0     0.0     0.0        0.0        0.0        0.0        0.0
"Line.l103"          2        0.0        0.0        0.0        0.0     0.0     0.0
"Line.l104"          1        0.0        0.0        0.0        0.0     0.0     0.0        0.0        0.0        0.0        0.0
"Line.l104"          2        0.0        0.0        0.0        0.0     0.0     0.0
"Line.l105"          1      141.7       74.9        0.9       -1.5     0.8    -1.1        0.0        0.0        0.0        0.0
"Line.l105"          2     -141.7      -74.8       -0.8        1.6    -0.7     1.3
"Line.l106"          1        0.0        0.0        0.0        0.0     0.0     0.0        0.0        0.0        0.0        0.0
"Line.l106"          2        0.0        0.0        0.0        0.0     0.0     0.0
"Line.l107"          1        0.0        0.0        0.0        0.0     0.0     0.0        0.0        0.0        0.0        0.0
"Line.l107"          2        0.0        0.0        0.0        0.0     0.0     0.0
"Line.l108"          1       -0.0       -0.0        0.0       -0.0    -0.0    -0.0        0.0        0.0        0.0        0.0
"Line.l108"          2        0.0        0.0       -0.0        0.0     0.0    -0.0
"Line.l109"          1        0.0        0.0        0.0        0.0     0.0     0.0        0.0        0.0        0.0        0.0
"Line.l109"          2        0.0        0.0        0.0        0.0     0.0     0.0
"Line.l110"          1        0.0        0.0        0.0        0.0     0.0     0.0        0.0        0.0        0.0        0.0
"Line.l110"          2        0.0        0.0        0.0        0.0     0.0     0.0
"Line.l111"          1        0.0        0.0        0.0        0.0     0.0     0.0        0.0        0.0        0.0        0.0
"Line.l111"          2        0.0        0.0        0.0        0.0     0.0     0.0
"Line.l112"          1        0.0        0.0        0.0        0.0     0.0     0.0        0.0        0.0        0.0        0.0
"Line.l112"          2        0.0        0.0        0.0        0.0     0.0     0.0
"Line.l113"          1        0.0        0.0        0.0        0.0     0.0     0.0        0.0        0.0        0.0        0.0
"Line.l113"          2        0.0        0.0        0.0        0.0     0.0     0.0
"Line.l114"          1      763.9      479.8       -0.8        0.2     0.9    -0.5        0.0        0.0        0.0        0.0
"Line.l114"          2     -763.0     -477.7        0.9       -0.2    -0.8     0.5
"Line.l116"          1     2032.4      342.0       -1.1       -1.2    -0.4    -1.9        0.0        0.0        0.0        0.0
"Line.l116"          2    -2027.1     -330.7        1.3        1.4     0.5     2.1
"Line.l117"          1     1452.2       -8.2        0.9       -1.3     0.5    -0.8        0.0        0.0        0.0        0.0
"Line.l117"          2    -1449.8       12.9       -1.0        1.3    -0.4     0.9
"Line.l118"          1      323.3      164.0        0.5       -0.4     0.2    -0.4        0.0        0.0        0.0        0.0
"Line.l118"          2     -323.2     -163.8       -0.5        0.4    -0.2     0.5
"Line.sw1"           1     3621.3     1324.9       -0.0       -0.0    -0.0    -0.0     1316.4      481.6      163.9       60.0
"Line.sw1"           2    -3621.3    -1324.9        0.0        0.0     0.0     0.0
"Line.sw2"           1     2032.4      342.0       -1.1       -1.2    -0.4    -1.9        0.0        0.0        0.0        0.0
"Line.sw2"           2    -2032.4     -342.0        1.1        1.2     0.4     1.9
"Line.sw3"           1      763.9      479.8       -0.8        0.2     0.9    -0.5        0.0        0.0        0.0        0.0
"Line.sw3"           2     -763.9     -479.8        0.8       -0.2    -0.9     0.5
"Line.sw4"           1     1455.5       -6.8       -1.1       -1.3    -0.8    -2.0        0.0        0.0        0.0        0.0
"Line.sw4"           2    -1455.5        6.8        1.1        1.3     0.8     2.0
"Line.sw5"           1      323.3      164.0        0.5       -0.4     0.2    -0.4        0.0        0.0        0.0        0.0
"Line.sw5"           2     -323.3     -164.0       -0.5        0.4    -0.2     0.4
"Line.sw6"           1        0.0        0.0        0.0        0.0     0.0     0.0        0.0        0.0        0.0        0.0
"Line.sw6"           2       -0.0       -0.0       -0.0       -0.0    -0.0    -0.0
"Line.sw7"           1        0.0       -0.0       -0.0        0.0    -0.0     0.0        0.0        0.0        0.0        0.0
"Line.sw7"           2        0.0       -0.0       -0.0        0.0    -0.0     0.0
"Line.sw8"           1        0.0        0.0        0.0        0.0     0.0     0.0        0.0        0.0        0.0        0.0
"Line.sw8"           2        0.0        0.0        0.0        0.0     0.0     0.0
"Transformer.xfm1"   1        0.0        0.0        0.0        0.0    -0.0     0.0        0.0        0.0        0.0        0.0
"Transformer.xfm1"   2       -0.0       -0.0        0.0        0.0    -0.0     0.0
"Capacitor.c83"      1        0.0     -647.5       -0.0       -0.1    -0.0    -0.0        0.0        0.0        0.0        0.0
"Capacitor.c83"      2       -0.0        0.0       -0.0        0.0    -0.0     0.0
"Capacitor.c88a"     1        0.0        0.0        0.0        0.0     0.0     0.0        0.0        0.0        0.0        0.0
"Capacitor.c88a"     2        0.0        0.0        0.0        0.0     0.0     0.0
"Capacitor.c90b"     1        0.0        0.0        0.0        0.0     0.0     0.0        0.0        0.0        0.0        0.0
"Capacitor.c90b"     2        0.0        0.0        0.0        0.0     0.0     0.0
"Capacitor.c92c"     1        0.0        0.0        0.0        0.0     0.0     0.0        0.0        0.0        0.0        0.0
"Capacitor.c92c"     2        0.0        0.0        0.0        0.0     0.0     0.0
"Transformer.reg2a"  1        0.0        0.0        0.0        0.0     0.0     0.0        0.0        0.0        0.0        0.0
"Transformer.reg2a"  2        0.0        0.0        0.0        0.0     0.0     0.0
"Transformer.reg3a"  1        0.0        0.0        0.0        0.0     0.0     0.0        0.0        0.0        0.0        0.0
"Transformer.reg3a"  2        0.0        0.0        0.0        0.0     0.0     0.0
"Transformer.reg4a"  1        0.0        0.0        0.0        0.0     0.0     0.0        0.0        0.0        0.0        0.0
"Transformer.reg4a"  2        0.0        0.0        0.0        0.0     0.0     0.0
"Transformer.reg3c"  1        0.0        0.0        0.0        0.0     0.0     0.0        0.0        0.0        0.0        0.0
"Transformer.reg3c"  2        0.0        0.0        0.0        0.0     0.0     0.0
"Transformer.reg4b"  1        0.0        0.0        0.0        0.0     0.0     0.0        0.0        0.0        0.0        0.0
"Transformer.reg4b"  2        0.0        0.0        0.0        0.0     0.0     0.0
"Transformer.reg4c"  1        0.0        0.0        0.0        0.0     0.0     0.0        0.0        0.0        0.0        0.0
"Transformer.reg4c"  2        0.0        0.0        0.0        0.0     0.0     0.0
"Load.s1a"           1        0.0        0.0        0.0        0.0     0.0     0.0
"Load.s2b"           1        0.0        0.0        0.0        0.0     0.0     0.0
"Load.s4c"           1        0.0        0.0        0.0        0.0     0.0     0.0
"Load.s5c"           1        0.0        0.0        0.0        0.0     0.0     0.0
"Load.s6c"           1        0.0        0.0        0.0        0.0     0.0     0.0
"Load.s7a"           1        0.0        0.0        0.0        0.0     0.0     0.0
"Load.s9a"           1        0.0        0.0        0.0        0.0     0.0     0.0
"Load.s10a"          1        0.0        0.0        0.0        0.0     0.0     0.0
"Load.s11a"          1        0.0        0.0        0.0        0.0     0.0     0.0
"Load.s12b"          1        0.0        0.0        0.0        0.0     0.0     0.0
"Load.s16c"          1        0.0        0.0        0.0        0.0     0.0     0.0
"Load.s17c"          1        0.0        0.0        0.0        0.0     0.0     0.0
"Load.s19a"          1        0.0        0.0        0.0        0.0     0.0     0.0
"Load.s20a"          1        0.0        0.0        0.0        0.0     0.0     0.0
"Load.s22b"          1        0.0        0.0        0.0        0.0     0.0     0.0
"Load.s24c"          1        0.0        0.0        0.0        0.0     0.0     0.0
"Load.s28a"          1        0.0        0.0        0.0        0.0     0.0     0.0
"Load.s29a"          1        0.0        0.0        0.0        0.0     0.0     0.0
"Load.s30c"          1        0.0        0.0        0.0        0.0     0.0     0.0
"Load.s31c"          1        0.0        0.0        0.0        0.0     0.0     0.0
"Load.s32c"          1        0.0        0.0        0.0        0.0     0.0     0.0
"Load.s33a"          1        0.0        0.0        0.0        0.0     0.0     0.0
"Load.s34c"          1        0.0        0.0        0.0        0.0     0.0     0.0
"Load.s35a"          1        0.0        0.0        0.0        0.0     0.0     0.0
"Load.s37a"          1        0.0        0.0        0.0        0.0     0.0     0.0
"Load.s38b"          1        0.0        0.0        0.0        0.0     0.0     0.0
"Load.s39b"          1        0.0        0.0        0.0        0.0     0.0     0.0
"Load.s41c"          1        0.0        0.0        0.0        0.0     0.0     0.0
"Load.s42a"          1        0.0        0.0        0.0        0.0     0.0     0.0
"Load.s43b"          1        0.0        0.0        0.0        0.0     0.0     0.0
"Load.s45a"          1        0.0        0.0        0.0        0.0     0.0     0.0
"Load.s46a"          1        0.0        0.0        0.0        0.0     0.0     0.0
"Load.s47"           1      105.8       75.6        0.0       -0.0     0.0     0.0
"Load.s48"           1      213.1      152.2        0.0        0.0     0.0     0.0
"Load.s49a"          1        0.0        0.0        0.0        0.0     0.0     0.0
"Load.s49b"          1        0.0        0.0        0.0        0.0     0.0     0.0
"Load.s49c"          1        0.0        0.0        0.0        0.0     0.0     0.0
"Load.s50c"          1        0.0        0.0        0.0        0.0     0.0     0.0
"Load.s51a"          1        0.0        0.0        0.0        0.0     0.0     0.0
"Load.s52a"          1        0.0        0.0        0.0        0.0     0.0     0.0
"Load.s53a"          1        0.0        0.0        0.0        0.0     0.0     0.0
"Load.s55a"          1        0.0        0.0        0.0        0.0     0.0     0.0
"Load.s56b"          1        0.0        0.0        0.0        0.0     0.0     0.0
"Load.s58b"          1        0.0        0.0        0.0        0.0     0.0     0.0
"Load.s59b"          1        0.0        0.0        0.0        0.0     0.0     0.0
"Load.s60a"          1        0.0        0.0        0.0        0.0     0.0     0.0
"Load.s62c"          1        0.0        0.0        0.0        0.0     0.0     0.0
"Load.s63a"          1        0.0        0.0        0.0        0.0     0.0     0.0
"Load.s64b"          1        0.0        0.0        0.0        0.0     0.0     0.0
"Load.s65a"          1        0.0        0.0        0.0        0.0     0.0     0.0
"Load.s65b"          1        0.0        0.0        0.0        0.0     0.0     0.0
"Load.s65c"          1        0.0        0.0        0.0        0.0     0.0     0.0
"Load.s66c"          1        0.0        0.0        0.0        0.0     0.0     0.0
"Load.s68a"          1        0.0        0.0        0.0        0.0     0.0     0.0
"Load.s69a"          1        0.0        0.0        0.0        0.0     0.0     0.0
"Load.s70a"          1        0.0        0.0        0.0        0.0     0.0     0.0
"Load.s71a"          1        0.0        0.0        0.0        0.0     0.0     0.0
"Load.s73c"          1        0.0        0.0        0.0        0.0     0.0     0.0
"Load.s74c"          1        0.0        0.0        0.0        0.0     0.0     0.0
"Load.s75c"          1        0.0        0.0        0.0        0.0     0.0     0.0
"Load.s76a"          1        0.0        0.0        0.0        0.0     0.0     0.0
"Load.s76b"          1        0.0        0.0        0.0        0.0     0.0     0.0
"Load.s76c"          1        0.0        0.0        0.0        0.0     0.0     0.0
"Load.s77b"          1        0.0        0.0        0.0        0.0     0.0     0.0
"Load.s79a"          1        0.0        0.0        0.0        0.0     0.0     0.0
"Load.s80b"          1        0.0        0.0        0.0        0.0     0.0     0.0
"Load.s82a"          1        0.0        0.0        0.0        0.0     0.0     0.0
"Load.s83c"          1        0.0        0.0        0.0        0.0     0.0     0.0
"Load.s84c"          1        0.0        0.0        0.0        0.0     0.0     0.0
"Load.s85c"          1        0.0        0.0        0.0        0.0     0.0     0.0
"Load.s86b"          1        0.0        0.0        0.0        0.0     0.0     0.0
"Load.s87b"          1        0.0        0.0        0.0        0.0     0.0     0.0
"Load.s88a"          1        0.0        0.0        0.0        0.0     0.0     0.0
"Load.s90b"          1        0.0        0.0        0.0        0.0     0.0     0.0
"Load.s92c"          1        0.0        0.0        0.0        0.0     0.0     0.0
"Load.s94a"          1        0.0        0.0        0.0        0.0     0.0     0.0
"Load.s95b"          1        0.0        0.0        0.0        0.0     0.0     0.0
"Load.s96b"          1        0.0        0.0        0.0        0.0     0.0     0.0
"Load.s98a"          1        0.0        0.0        0.0        0.0     0.0     0.0
"Load.s99b"          1        0.0        0.0        0.0        0.0     0.0     0.0
"Load.s100c"         1        0.0        0.0        0.0        0.0     0.0     0.0
"Load.s102c"         1        0.0        0.0        0.0        0.0     0.0     0.0
"Load.s103c"         1        0.0        0.0        0.0        0.0     0.0     0.0
"Load.s104c"         1        0.0        0.0        0.0        0.0     0.0     0.0
"Load.s106b"         1        0.0        0.0        0.0        0.0     0.0     0.0
"Load.s107b"         1        0.0        0.0        0.0        0.0     0.0     0.0
"Load.s109a"         1        0.0        0.0        0.0        0.0     0.0     0.0
"Load.s111a"         1        0.0        0.0        0.0        0.0     0.0     0.0
"Load.s112a"         1        0.0        0.0        0.0        0.0     0.0     0.0
"Load.s113a"         1        0.0        0.0        0.0        0.0     0.0     0.0
"Load.s114a"         1        0.0        0.0        0.0        0.0     0.0     0.0

Total Circuit Losses =   95.4 +j  191.9
